MODEL 1
REMARK VINA RESULT:      -7.5      0.000      0.000
REMARK  6 active torsions:
REMARK  status: ('A' for Active; 'I' for Inactive)
REMARK    1  A    between atoms: C08_6  and  N09_18 
REMARK    2  A    between atoms: C11_7  and  C12_8 
REMARK    3  A    between atoms: C11_7  and  S10_22 
REMARK    4  A    between atoms: C12_8  and  C13_9 
REMARK    5  A    between atoms: C13_9  and  C14_10 
REMARK    6  A    between atoms: N09_18  and  S10_22 
ROOT
HETATM    1  C01 JFX A 501      52.052  -7.816 -18.741  1.00 62.30     0.070 C 
HETATM    2  C02 JFX A 501      50.947  -7.266 -19.636  1.00 69.74     0.034 A 
HETATM    3  C05 JFX A 501      48.968  -6.525 -20.372  1.00 66.41     0.060 A 
HETATM    4  C06 JFX A 501      49.583  -7.021 -19.238  1.00 67.31     0.018 A 
HETATM    5  C07 JFX A 501      48.844  -7.172 -18.040  1.00 64.74     0.046 A 
HETATM    6  C08 JFX A 501      47.491  -6.823 -18.011  1.00 66.27     0.043 A 
HETATM    7  C18 JFX A 501      46.867  -6.322 -19.163  1.00 58.48     0.032 A 
HETATM    8  C19 JFX A 501      47.595  -6.174 -20.338  1.00 57.92     0.034 A 
HETATM    9  N03 JFX A 501      51.078  -6.931 -20.907  1.00 73.37    -0.304 N 
ATOM     10  H03 JFX A 501      51.934  -6.998 -21.457  1.00  0.00     0.186 HD
HETATM   11  N04 JFX A 501      49.895  -6.487 -21.351  1.00 70.74    -0.300 N 
ATOM     12  H04 JFX A 501      49.719  -6.164 -22.302  1.00  0.00     0.187 HD
ENDROOT
BRANCH   6  13
HETATM   13  N09 JFX A 501      46.707  -6.967 -16.798  1.00 70.80    -0.285 N 
ATOM     14  H09 JFX A 501      46.050  -7.744 -16.721  1.00  0.00     0.178 HD
BRANCH  13  15
HETATM   15  S10 JFX A 501      46.853  -5.872 -15.495  1.00 67.91     0.231 S 
HETATM   16  O16 JFX A 501      45.628  -5.094 -15.332  1.00 64.11    -0.206 OA
HETATM   17  O17 JFX A 501      47.830  -4.827 -15.809  1.00 69.85    -0.206 OA
BRANCH  15  18
HETATM   18  C11 JFX A 501      47.292  -6.762 -13.970  1.00 70.63     0.163 C 
BRANCH  18  19
HETATM   19  C12 JFX A 501      46.157  -7.680 -13.526  1.00 65.37     0.019 C 
BRANCH  19  20
HETATM   20  C13 JFX A 501      46.690  -8.854 -12.707  1.00 65.38     0.032 C 
BRANCH  20  21
HETATM   21  C14 JFX A 501      45.592  -9.858 -12.373  1.00 68.91     0.222 C 
HETATM   22  F15 JFX A 501      45.860 -10.476 -11.188  1.00 69.95    -0.255 F 
ENDBRANCH  20  21
ENDBRANCH  19  20
ENDBRANCH  18  19
ENDBRANCH  15  18
ENDBRANCH  13  15
ENDBRANCH   6  13
TORSDOF 6
ENDMDL
MODEL 2
REMARK VINA RESULT:      -7.1      1.324      1.947
REMARK  6 active torsions:
REMARK  status: ('A' for Active; 'I' for Inactive)
REMARK    1  A    between atoms: C08_6  and  N09_18 
REMARK    2  A    between atoms: C11_7  and  C12_8 
REMARK    3  A    between atoms: C11_7  and  S10_22 
REMARK    4  A    between atoms: C12_8  and  C13_9 
REMARK    5  A    between atoms: C13_9  and  C14_10 
REMARK    6  A    between atoms: N09_18  and  S10_22 
ROOT
HETATM    1  C01 JFX A 501      47.796  -8.874 -21.346  1.00 62.30     0.070 C 
HETATM    2  C02 JFX A 501      48.874  -8.019 -20.689  1.00 69.74     0.034 A 
HETATM    3  C05 JFX A 501      49.916  -6.541 -19.371  1.00 66.41     0.060 A 
HETATM    4  C06 JFX A 501      48.660  -7.052 -19.641  1.00 67.31     0.018 A 
HETATM    5  C07 JFX A 501      47.536  -6.585 -18.920  1.00 64.74     0.046 A 
HETATM    6  C08 JFX A 501      47.700  -5.604 -17.938  1.00 66.27     0.043 A 
HETATM    7  C18 JFX A 501      48.975  -5.085 -17.666  1.00 58.48     0.032 A 
HETATM    8  C19 JFX A 501      50.078  -5.545 -18.375  1.00 57.92     0.034 A 
HETATM    9  N03 JFX A 501      50.162  -8.041 -20.981  1.00 73.37    -0.304 N 
ATOM     10  H03 JFX A 501      50.604  -8.630 -21.686  1.00  0.00     0.186 HD
HETATM   11  N04 JFX A 501      50.788  -7.157 -20.194  1.00 70.74    -0.300 N 
ATOM     12  H04 JFX A 501      51.792  -6.974 -20.215  1.00  0.00     0.187 HD
ENDROOT
BRANCH   6  13
HETATM   13  N09 JFX A 501      46.566  -5.105 -17.182  1.00 70.80    -0.285 N 
ATOM     14  H09 JFX A 501      45.817  -4.617 -17.674  1.00  0.00     0.178 HD
BRANCH  13  15
HETATM   15  S10 JFX A 501      46.450  -5.312 -15.490  1.00 67.91     0.231 S 
HETATM   16  O16 JFX A 501      45.111  -4.970 -15.016  1.00 64.11    -0.206 OA
HETATM   17  O17 JFX A 501      47.274  -4.322 -14.794  1.00 69.85    -0.206 OA
BRANCH  15  18
HETATM   18  C11 JFX A 501      46.911  -7.011 -15.030  1.00 70.63     0.163 C 
BRANCH  18  19
HETATM   19  C12 JFX A 501      46.250  -7.421 -13.717  1.00 65.37     0.019 C 
BRANCH  19  20
HETATM   20  C13 JFX A 501      47.139  -8.387 -12.935  1.00 65.38     0.032 C 
BRANCH  20  21
HETATM   21  C14 JFX A 501      46.475  -9.749 -12.754  1.00 68.91     0.222 C 
HETATM   22  F15 JFX A 501      45.932  -9.849 -11.508  1.00 69.95    -0.255 F 
ENDBRANCH  20  21
ENDBRANCH  19  20
ENDBRANCH  18  19
ENDBRANCH  15  18
ENDBRANCH  13  15
ENDBRANCH   6  13
TORSDOF 6
ENDMDL
MODEL 3
REMARK VINA RESULT:      -6.9      1.592      1.749
REMARK  6 active torsions:
REMARK  status: ('A' for Active; 'I' for Inactive)
REMARK    1  A    between atoms: C08_6  and  N09_18 
REMARK    2  A    between atoms: C11_7  and  C12_8 
REMARK    3  A    between atoms: C11_7  and  S10_22 
REMARK    4  A    between atoms: C12_8  and  C13_9 
REMARK    5  A    between atoms: C13_9  and  C14_10 
REMARK    6  A    between atoms: N09_18  and  S10_22 
ROOT
HETATM    1  C01 JFX A 501      52.285  -4.886 -18.488  1.00 62.30     0.070 C 
HETATM    2  C02 JFX A 501      51.312  -5.463 -19.511  1.00 69.74     0.034 A 
HETATM    3  C05 JFX A 501      49.465  -6.280 -20.475  1.00 66.41     0.060 A 
HETATM    4  C06 JFX A 501      49.934  -5.804 -19.264  1.00 67.31     0.018 A 
HETATM    5  C07 JFX A 501      49.070  -5.746 -18.145  1.00 64.74     0.046 A 
HETATM    6  C08 JFX A 501      47.745  -6.174 -18.268  1.00 66.27     0.043 A 
HETATM    7  C18 JFX A 501      47.271  -6.658 -19.497  1.00 58.48     0.032 A 
HETATM    8  C19 JFX A 501      48.122  -6.714 -20.595  1.00 57.92     0.034 A 
HETATM    9  N03 JFX A 501      51.591  -5.734 -20.774  1.00 73.37    -0.304 N 
ATOM     10  H03 JFX A 501      52.492  -5.595 -21.230  1.00  0.00     0.186 HD
HETATM   11  N04 JFX A 501      50.487  -6.223 -21.353  1.00 70.74    -0.300 N 
ATOM     12  H04 JFX A 501      50.428  -6.515 -22.329  1.00  0.00     0.187 HD
ENDROOT
BRANCH   6  13
HETATM   13  N09 JFX A 501      46.835  -6.127 -17.138  1.00 70.80    -0.285 N 
ATOM     14  H09 JFX A 501      46.302  -6.962 -16.895  1.00  0.00     0.178 HD
BRANCH  13  15
HETATM   15  S10 JFX A 501      46.631  -4.711 -16.204  1.00 67.91     0.231 S 
HETATM   16  O16 JFX A 501      45.966  -3.668 -16.981  1.00 64.11    -0.206 OA
HETATM   17  O17 JFX A 501      47.927  -4.091 -15.921  1.00 69.85    -0.206 OA
BRANCH  15  18
HETATM   18  C11 JFX A 501      45.722  -5.091 -14.674  1.00 70.63     0.163 C 
BRANCH  18  19
HETATM   19  C12 JFX A 501      45.857  -6.566 -14.309  1.00 65.37     0.019 C 
BRANCH  19  20
HETATM   20  C13 JFX A 501      47.189  -6.837 -13.611  1.00 65.38     0.032 C 
BRANCH  20  21
HETATM   21  C14 JFX A 501      47.229  -8.227 -12.984  1.00 68.91     0.222 C 
HETATM   22  F15 JFX A 501      48.324  -8.354 -12.182  1.00 69.95    -0.255 F 
ENDBRANCH  20  21
ENDBRANCH  19  20
ENDBRANCH  18  19
ENDBRANCH  15  18
ENDBRANCH  13  15
ENDBRANCH   6  13
TORSDOF 6
ENDMDL
MODEL 4
REMARK VINA RESULT:      -6.4      4.625      6.292
REMARK  6 active torsions:
REMARK  status: ('A' for Active; 'I' for Inactive)
REMARK    1  A    between atoms: C08_6  and  N09_18 
REMARK    2  A    between atoms: C11_7  and  C12_8 
REMARK    3  A    between atoms: C11_7  and  S10_22 
REMARK    4  A    between atoms: C12_8  and  C13_9 
REMARK    5  A    between atoms: C13_9  and  C14_10 
REMARK    6  A    between atoms: N09_18  and  S10_22 
ROOT
HETATM    1  C01 JFX A 501      47.511  -6.187 -18.756  1.00 62.30     0.070 C 
HETATM    2  C02 JFX A 501      47.556  -6.389 -17.246  1.00 69.74     0.034 A 
HETATM    3  C05 JFX A 501      47.239  -6.119 -15.047  1.00 66.41     0.060 A 
HETATM    4  C06 JFX A 501      46.930  -5.539 -16.263  1.00 67.31     0.018 A 
HETATM    5  C07 JFX A 501      46.147  -4.361 -16.307  1.00 64.74     0.046 A 
HETATM    6  C08 JFX A 501      45.692  -3.786 -15.118  1.00 66.27     0.043 A 
HETATM    7  C18 JFX A 501      46.007  -4.374 -13.884  1.00 58.48     0.032 A 
HETATM    8  C19 JFX A 501      46.777  -5.531 -13.843  1.00 57.92     0.034 A 
HETATM    9  N03 JFX A 501      48.172  -7.373 -16.615  1.00 73.37    -0.304 N 
ATOM     10  H03 JFX A 501      48.701  -8.125 -17.056  1.00  0.00     0.186 HD
HETATM   11  N04 JFX A 501      47.985  -7.214 -15.299  1.00 70.74    -0.300 N 
ATOM     12  H04 JFX A 501      48.357  -7.838 -14.583  1.00  0.00     0.187 HD
ENDROOT
BRANCH   6  13
HETATM   13  N09 JFX A 501      44.887  -2.578 -15.131  1.00 70.80    -0.285 N 
ATOM     14  H09 JFX A 501      43.910  -2.629 -14.838  1.00  0.00     0.178 HD
BRANCH  13  15
HETATM   15  S10 JFX A 501      45.528  -1.073 -15.621  1.00 67.91     0.231 S 
HETATM   16  O16 JFX A 501      44.698   0.027 -15.138  1.00 64.11    -0.206 OA
HETATM   17  O17 JFX A 501      45.417  -0.915 -17.073  1.00 69.85    -0.206 OA
BRANCH  15  18
HETATM   18  C11 JFX A 501      47.251  -0.909 -15.060  1.00 70.63     0.163 C 
BRANCH  18  19
HETATM   19  C12 JFX A 501      48.226  -1.128 -16.213  1.00 65.37     0.019 C 
BRANCH  19  20
HETATM   20  C13 JFX A 501      49.141  -2.321 -15.938  1.00 65.38     0.032 C 
BRANCH  20  21
HETATM   21  C14 JFX A 501      50.615  -1.939 -16.031  1.00 68.91     0.222 C 
HETATM   22  F15 JFX A 501      50.953  -1.104 -15.008  1.00 69.95    -0.255 F 
ENDBRANCH  20  21
ENDBRANCH  19  20
ENDBRANCH  18  19
ENDBRANCH  15  18
ENDBRANCH  13  15
ENDBRANCH   6  13
TORSDOF 6
ENDMDL
MODEL 5
REMARK VINA RESULT:      -6.2      3.855      6.753
REMARK  6 active torsions:
REMARK  status: ('A' for Active; 'I' for Inactive)
REMARK    1  A    between atoms: C08_6  and  N09_18 
REMARK    2  A    between atoms: C11_7  and  C12_8 
REMARK    3  A    between atoms: C11_7  and  S10_22 
REMARK    4  A    between atoms: C12_8  and  C13_9 
REMARK    5  A    between atoms: C13_9  and  C14_10 
REMARK    6  A    between atoms: N09_18  and  S10_22 
ROOT
HETATM    1  C01 JFX A 501      46.019  -7.568 -13.328  1.00 62.30     0.070 C 
HETATM    2  C02 JFX A 501      46.425  -6.265 -14.009  1.00 69.74     0.034 A 
HETATM    3  C05 JFX A 501      47.261  -4.793 -15.472  1.00 66.41     0.060 A 
HETATM    4  C06 JFX A 501      47.124  -6.153 -15.265  1.00 67.31     0.018 A 
HETATM    5  C07 JFX A 501      47.634  -7.069 -16.215  1.00 64.74     0.046 A 
HETATM    6  C08 JFX A 501      48.279  -6.594 -17.360  1.00 66.27     0.043 A 
HETATM    7  C18 JFX A 501      48.419  -5.213 -17.569  1.00 58.48     0.032 A 
HETATM    8  C19 JFX A 501      47.918  -4.315 -16.634  1.00 57.92     0.034 A 
HETATM    9  N03 JFX A 501      46.192  -5.049 -13.550  1.00 73.37    -0.304 N 
ATOM     10  H03 JFX A 501      45.713  -4.820 -12.679  1.00  0.00     0.186 HD
HETATM   11  N04 JFX A 501      46.692  -4.165 -14.423  1.00 70.74    -0.300 N 
ATOM     12  H04 JFX A 501      46.647  -3.152 -14.310  1.00  0.00     0.187 HD
ENDROOT
BRANCH   6  13
HETATM   13  N09 JFX A 501      48.813  -7.508 -18.353  1.00 70.80    -0.285 N 
ATOM     14  H09 JFX A 501      49.380  -8.299 -18.046  1.00  0.00     0.178 HD
BRANCH  13  15
HETATM   15  S10 JFX A 501      48.517  -7.299 -20.022  1.00 67.91     0.231 S 
HETATM   16  O16 JFX A 501      47.125  -6.926 -20.260  1.00 64.11    -0.206 OA
HETATM   17  O17 JFX A 501      48.608  -8.579 -20.726  1.00 69.85    -0.206 OA
BRANCH  15  18
HETATM   18  C11 JFX A 501      49.667  -6.071 -20.716  1.00 70.63     0.163 C 
BRANCH  18  19
HETATM   19  C12 JFX A 501      51.117  -6.464 -20.446  1.00 65.37     0.019 C 
BRANCH  19  20
HETATM   20  C13 JFX A 501      51.685  -5.681 -19.263  1.00 65.38     0.032 C 
BRANCH  20  21
HETATM   21  C14 JFX A 501      52.325  -6.601 -18.229  1.00 68.91     0.222 C 
HETATM   22  F15 JFX A 501      53.643  -6.292 -18.071  1.00 69.95    -0.255 F 
ENDBRANCH  20  21
ENDBRANCH  19  20
ENDBRANCH  18  19
ENDBRANCH  15  18
ENDBRANCH  13  15
ENDBRANCH   6  13
TORSDOF 6
ENDMDL
MODEL 6
REMARK VINA RESULT:      -6.0      4.763      5.871
REMARK  6 active torsions:
REMARK  status: ('A' for Active; 'I' for Inactive)
REMARK    1  A    between atoms: C08_6  and  N09_18 
REMARK    2  A    between atoms: C11_7  and  C12_8 
REMARK    3  A    between atoms: C11_7  and  S10_22 
REMARK    4  A    between atoms: C12_8  and  C13_9 
REMARK    5  A    between atoms: C13_9  and  C14_10 
REMARK    6  A    between atoms: N09_18  and  S10_22 
ROOT
HETATM    1  C01 JFX A 501      50.421  -1.227 -15.318  1.00 62.30     0.070 C 
HETATM    2  C02 JFX A 501      48.942  -0.893 -15.160  1.00 69.74     0.034 A 
HETATM    3  C05 JFX A 501      46.709  -0.992 -15.264  1.00 66.41     0.060 A 
HETATM    4  C06 JFX A 501      47.841  -1.687 -15.646  1.00 67.31     0.018 A 
HETATM    5  C07 JFX A 501      47.719  -2.905 -16.357  1.00 64.74     0.046 A 
HETATM    6  C08 JFX A 501      46.451  -3.399 -16.673  1.00 66.27     0.043 A 
HETATM    7  C18 JFX A 501      45.302  -2.692 -16.286  1.00 58.48     0.032 A 
HETATM    8  C19 JFX A 501      45.424  -1.496 -15.588  1.00 57.92     0.034 A 
HETATM    9  N03 JFX A 501      48.452   0.172 -14.550  1.00 73.37    -0.304 N 
ATOM     10  H03 JFX A 501      48.998   0.912 -14.109  1.00  0.00     0.186 HD
HETATM   11  N04 JFX A 501      47.115   0.116 -14.612  1.00 70.74    -0.300 N 
ATOM     12  H04 JFX A 501      46.489   0.818 -14.217  1.00  0.00     0.187 HD
ENDROOT
BRANCH   6  13
HETATM   13  N09 JFX A 501      46.293  -4.645 -17.400  1.00 70.80    -0.285 N 
ATOM     14  H09 JFX A 501      45.409  -4.834 -17.874  1.00  0.00     0.178 HD
BRANCH  13  15
HETATM   15  S10 JFX A 501      47.545  -5.803 -17.486  1.00 67.91     0.231 S 
HETATM   16  O16 JFX A 501      48.785  -5.193 -17.958  1.00 64.11    -0.206 OA
HETATM   17  O17 JFX A 501      47.272  -6.779 -18.542  1.00 69.85    -0.206 OA
BRANCH  15  18
HETATM   18  C11 JFX A 501      47.768  -6.610 -15.870  1.00 70.63     0.163 C 
BRANCH  18  19
HETATM   19  C12 JFX A 501      46.421  -6.935 -15.230  1.00 65.37     0.019 C 
BRANCH  19  20
HETATM   20  C13 JFX A 501      46.410  -6.546 -13.752  1.00 65.38     0.032 C 
BRANCH  20  21
HETATM   21  C14 JFX A 501      46.793  -5.083 -13.548  1.00 68.91     0.222 C 
HETATM   22  F15 JFX A 501      45.676  -4.303 -13.498  1.00 69.95    -0.255 F 
ENDBRANCH  20  21
ENDBRANCH  19  20
ENDBRANCH  18  19
ENDBRANCH  15  18
ENDBRANCH  13  15
ENDBRANCH   6  13
TORSDOF 6
ENDMDL
MODEL 7
REMARK VINA RESULT:      -6.0      4.247      7.084
REMARK  6 active torsions:
REMARK  status: ('A' for Active; 'I' for Inactive)
REMARK    1  A    between atoms: C08_6  and  N09_18 
REMARK    2  A    between atoms: C11_7  and  C12_8 
REMARK    3  A    between atoms: C11_7  and  S10_22 
REMARK    4  A    between atoms: C12_8  and  C13_9 
REMARK    5  A    between atoms: C13_9  and  C14_10 
REMARK    6  A    between atoms: N09_18  and  S10_22 
ROOT
HETATM    1  C01 JFX A 501      47.178  -7.913 -13.162  1.00 62.30     0.070 C 
HETATM    2  C02 JFX A 501      46.960  -6.612 -13.927  1.00 69.74     0.034 A 
HETATM    3  C05 JFX A 501      46.917  -5.074 -15.552  1.00 66.41     0.060 A 
HETATM    4  C06 JFX A 501      47.302  -6.380 -15.308  1.00 67.31     0.018 A 
HETATM    5  C07 JFX A 501      47.886  -7.150 -16.342  1.00 64.74     0.046 A 
HETATM    6  C08 JFX A 501      48.075  -6.585 -17.606  1.00 66.27     0.043 A 
HETATM    7  C18 JFX A 501      47.686  -5.260 -17.852  1.00 58.48     0.032 A 
HETATM    8  C19 JFX A 501      47.113  -4.504 -16.835  1.00 57.92     0.034 A 
HETATM    9  N03 JFX A 501      46.425  -5.508 -13.437  1.00 73.37    -0.304 N 
ATOM     10  H03 JFX A 501      46.089  -5.380 -12.483  1.00  0.00     0.186 HD
HETATM   11  N04 JFX A 501      46.398  -4.586 -14.407  1.00 70.74    -0.300 N 
ATOM     12  H04 JFX A 501      46.033  -3.640 -14.295  1.00  0.00     0.187 HD
ENDROOT
BRANCH   6  13
HETATM   13  N09 JFX A 501      48.672  -7.350 -18.686  1.00 70.80    -0.285 N 
ATOM     14  H09 JFX A 501      48.063  -7.857 -19.330  1.00  0.00     0.178 HD
BRANCH  13  15
HETATM   15  S10 JFX A 501      50.363  -7.426 -18.909  1.00 67.91     0.231 S 
HETATM   16  O16 JFX A 501      50.992  -8.209 -17.849  1.00 64.11    -0.206 OA
HETATM   17  O17 JFX A 501      50.968  -6.109 -18.706  1.00 69.85    -0.206 OA
BRANCH  15  18
HETATM   18  C11 JFX A 501      50.752  -8.094 -20.557  1.00 70.63     0.163 C 
BRANCH  18  19
HETATM   19  C12 JFX A 501      51.546  -9.392 -20.448  1.00 65.37     0.019 C 
BRANCH  19  20
HETATM   20  C13 JFX A 501      50.925 -10.488 -21.313  1.00 65.38     0.032 C 
BRANCH  20  21
HETATM   21  C14 JFX A 501      51.918 -11.607 -21.611  1.00 68.91     0.222 C 
HETATM   22  F15 JFX A 501      53.026 -11.104 -22.226  1.00 69.95    -0.255 F 
ENDBRANCH  20  21
ENDBRANCH  19  20
ENDBRANCH  18  19
ENDBRANCH  15  18
ENDBRANCH  13  15
ENDBRANCH   6  13
TORSDOF 6
ENDMDL
MODEL 8
REMARK VINA RESULT:      -6.0      4.368      6.216
REMARK  6 active torsions:
REMARK  status: ('A' for Active; 'I' for Inactive)
REMARK    1  A    between atoms: C08_6  and  N09_18 
REMARK    2  A    between atoms: C11_7  and  C12_8 
REMARK    3  A    between atoms: C11_7  and  S10_22 
REMARK    4  A    between atoms: C12_8  and  C13_9 
REMARK    5  A    between atoms: C13_9  and  C14_10 
REMARK    6  A    between atoms: N09_18  and  S10_22 
ROOT
HETATM    1  C01 JFX A 501      45.524   0.350 -18.009  1.00 62.30     0.070 C 
HETATM    2  C02 JFX A 501      44.857  -0.433 -16.883  1.00 69.74     0.034 A 
HETATM    3  C05 JFX A 501      44.443  -1.960 -15.300  1.00 66.41     0.060 A 
HETATM    4  C06 JFX A 501      45.384  -1.619 -16.255  1.00 67.31     0.018 A 
HETATM    5  C07 JFX A 501      46.549  -2.405 -16.412  1.00 64.74     0.046 A 
HETATM    6  C08 JFX A 501      46.743  -3.528 -15.603  1.00 66.27     0.043 A 
HETATM    7  C18 JFX A 501      45.787  -3.875 -14.636  1.00 58.48     0.032 A 
HETATM    8  C19 JFX A 501      44.643  -3.101 -14.483  1.00 57.92     0.034 A 
HETATM    9  N03 JFX A 501      43.701  -0.137 -16.316  1.00 73.37    -0.304 N 
ATOM     10  H03 JFX A 501      43.101   0.651 -16.558  1.00  0.00     0.186 HD
HETATM   11  N04 JFX A 501      43.450  -1.050 -15.369  1.00 70.74    -0.300 N 
ATOM     12  H04 JFX A 501      42.619  -1.056 -14.778  1.00  0.00     0.187 HD
ENDROOT
BRANCH   6  13
HETATM   13  N09 JFX A 501      47.929  -4.354 -15.741  1.00 70.80    -0.285 N 
ATOM     14  H09 JFX A 501      48.769  -4.109 -15.217  1.00  0.00     0.178 HD
BRANCH  13  15
HETATM   15  S10 JFX A 501      47.957  -5.727 -16.757  1.00 67.91     0.231 S 
HETATM   16  O16 JFX A 501      49.298  -5.951 -17.290  1.00 64.11    -0.206 OA
HETATM   17  O17 JFX A 501      47.188  -5.480 -17.978  1.00 69.85    -0.206 OA
BRANCH  15  18
HETATM   18  C11 JFX A 501      47.339  -7.186 -15.861  1.00 70.63     0.163 C 
BRANCH  18  19
HETATM   19  C12 JFX A 501      47.578  -7.049 -14.361  1.00 65.37     0.019 C 
BRANCH  19  20
HETATM   20  C13 JFX A 501      46.277  -7.235 -13.580  1.00 65.38     0.032 C 
BRANCH  20  21
HETATM   21  C14 JFX A 501      46.136  -8.656 -13.043  1.00 68.91     0.222 C 
HETATM   22  F15 JFX A 501      47.234  -8.996 -12.309  1.00 69.95    -0.255 F 
ENDBRANCH  20  21
ENDBRANCH  19  20
ENDBRANCH  18  19
ENDBRANCH  15  18
ENDBRANCH  13  15
ENDBRANCH   6  13
TORSDOF 6
ENDMDL
MODEL 9
REMARK VINA RESULT:      -6.0      2.629      3.571
REMARK  6 active torsions:
REMARK  status: ('A' for Active; 'I' for Inactive)
REMARK    1  A    between atoms: C08_6  and  N09_18 
REMARK    2  A    between atoms: C11_7  and  C12_8 
REMARK    3  A    between atoms: C11_7  and  S10_22 
REMARK    4  A    between atoms: C12_8  and  C13_9 
REMARK    5  A    between atoms: C13_9  and  C14_10 
REMARK    6  A    between atoms: N09_18  and  S10_22 
ROOT
HETATM    1  C01 JFX A 501      54.538  -4.527 -18.184  1.00 62.30     0.070 C 
HETATM    2  C02 JFX A 501      54.211  -5.809 -18.943  1.00 69.74     0.034 A 
HETATM    3  C05 JFX A 501      53.175  -7.659 -19.661  1.00 66.41     0.060 A 
HETATM    4  C06 JFX A 501      53.032  -6.619 -18.761  1.00 67.31     0.018 A 
HETATM    5  C07 JFX A 501      51.886  -6.553 -17.932  1.00 64.74     0.046 A 
HETATM    6  C08 JFX A 501      50.905  -7.543 -18.024  1.00 66.27     0.043 A 
HETATM    7  C18 JFX A 501      51.053  -8.599 -18.936  1.00 58.48     0.032 A 
HETATM    8  C19 JFX A 501      52.178  -8.662 -19.750  1.00 57.92     0.034 A 
HETATM    9  N03 JFX A 501      54.959  -6.365 -19.879  1.00 73.37    -0.304 N 
ATOM     10  H03 JFX A 501      55.854  -6.011 -20.216  1.00  0.00     0.186 HD
HETATM   11  N04 JFX A 501      54.342  -7.472 -20.311  1.00 70.74    -0.300 N 
ATOM     12  H04 JFX A 501      54.706  -8.092 -21.034  1.00  0.00     0.187 HD
ENDROOT
BRANCH   6  13
HETATM   13  N09 JFX A 501      49.720  -7.503 -17.188  1.00 70.80    -0.285 N 
ATOM     14  H09 JFX A 501      49.687  -8.078 -16.345  1.00  0.00     0.178 HD
BRANCH  13  15
HETATM   15  S10 JFX A 501      48.378  -6.519 -17.573  1.00 67.91     0.231 S 
HETATM   16  O16 JFX A 501      47.856  -6.850 -18.897  1.00 64.11    -0.206 OA
HETATM   17  O17 JFX A 501      48.796  -5.128 -17.756  1.00 69.85    -0.206 OA
BRANCH  15  18
HETATM   18  C11 JFX A 501      47.097  -6.670 -16.290  1.00 70.63     0.163 C 
BRANCH  18  19
HETATM   19  C12 JFX A 501      47.722  -6.875 -14.913  1.00 65.37     0.019 C 
BRANCH  19  20
HETATM   20  C13 JFX A 501      46.648  -6.936 -13.828  1.00 65.38     0.032 C 
BRANCH  20  21
HETATM   21  C14 JFX A 501      46.554  -8.324 -13.200  1.00 68.91     0.222 C 
HETATM   22  F15 JFX A 501      47.571  -8.512 -12.313  1.00 69.95    -0.255 F 
ENDBRANCH  20  21
ENDBRANCH  19  20
ENDBRANCH  18  19
ENDBRANCH  15  18
ENDBRANCH  13  15
ENDBRANCH   6  13
TORSDOF 6
ENDMDL
