MODEL 1
REMARK VINA RESULT:      -7.4      0.000      0.000
REMARK  6 active torsions:
REMARK  status: ('A' for Active; 'I' for Inactive)
REMARK    1  A    between atoms: C08_6  and  N09_18 
REMARK    2  A    between atoms: C11_7  and  C12_8 
REMARK    3  A    between atoms: C11_7  and  S10_22 
REMARK    4  A    between atoms: C12_8  and  C13_9 
REMARK    5  A    between atoms: C13_9  and  C14_10 
REMARK    6  A    between atoms: N09_18  and  S10_22 
ROOT
HETATM    1  C01 JFX A 501      52.085  -7.446 -19.003  1.00 62.30     0.070 C 
HETATM    2  C02 JFX A 501      50.863  -7.015 -19.806  1.00 69.74     0.034 A 
HETATM    3  C05 JFX A 501      48.772  -6.450 -20.372  1.00 66.41     0.060 A 
HETATM    4  C06 JFX A 501      49.528  -6.852 -19.286  1.00 67.31     0.018 A 
HETATM    5  C07 JFX A 501      48.919  -7.006 -18.017  1.00 64.74     0.046 A 
HETATM    6  C08 JFX A 501      47.552  -6.754 -17.869  1.00 66.27     0.043 A 
HETATM    7  C18 JFX A 501      46.786  -6.348 -18.972  1.00 58.48     0.032 A 
HETATM    8  C19 JFX A 501      47.386  -6.198 -20.217  1.00 57.92     0.034 A 
HETATM    9  N03 JFX A 501      50.847  -6.725 -21.094  1.00 73.37    -0.304 N 
ATOM     10  H03 JFX A 501      51.650  -6.753 -21.723  1.00  0.00     0.186 HD
HETATM   11  N04 JFX A 501      49.598  -6.387 -21.436  1.00 70.74    -0.300 N 
ATOM     12  H04 JFX A 501      49.309  -6.117 -22.377  1.00  0.00     0.187 HD
ENDROOT
BRANCH   6  13
HETATM   13  N09 JFX A 501      46.899  -6.903 -16.582  1.00 70.80    -0.285 N 
ATOM     14  H09 JFX A 501      46.490  -7.805 -16.334  1.00  0.00     0.178 HD
BRANCH  13  15
HETATM   15  S10 JFX A 501      46.796  -5.612 -15.469  1.00 67.91     0.231 S 
HETATM   16  O16 JFX A 501      45.541  -4.884 -15.633  1.00 64.11    -0.206 OA
HETATM   17  O17 JFX A 501      47.783  -4.579 -15.787  1.00 69.85    -0.206 OA
BRANCH  15  18
HETATM   18  C11 JFX A 501      46.996  -6.228 -13.768  1.00 70.63     0.163 C 
BRANCH  18  19
HETATM   19  C12 JFX A 501      46.118  -7.451 -13.522  1.00 65.37     0.019 C 
BRANCH  19  20
HETATM   20  C13 JFX A 501      46.923  -8.586 -12.890  1.00 65.38     0.032 C 
BRANCH  20  21
HETATM   21  C14 JFX A 501      46.062  -9.819 -12.636  1.00 68.91     0.222 C 
HETATM   22  F15 JFX A 501      46.012 -10.096 -11.303  1.00 69.95    -0.255 F 
ENDBRANCH  20  21
ENDBRANCH  19  20
ENDBRANCH  18  19
ENDBRANCH  15  18
ENDBRANCH  13  15
ENDBRANCH   6  13
TORSDOF 6
ENDMDL
MODEL 2
REMARK VINA RESULT:      -7.1      1.468      2.175
REMARK  6 active torsions:
REMARK  status: ('A' for Active; 'I' for Inactive)
REMARK    1  A    between atoms: C08_6  and  N09_18 
REMARK    2  A    between atoms: C11_7  and  C12_8 
REMARK    3  A    between atoms: C11_7  and  S10_22 
REMARK    4  A    between atoms: C12_8  and  C13_9 
REMARK    5  A    between atoms: C13_9  and  C14_10 
REMARK    6  A    between atoms: N09_18  and  S10_22 
ROOT
HETATM    1  C01 JFX A 501      47.547  -8.703 -21.578  1.00 62.30     0.070 C 
HETATM    2  C02 JFX A 501      48.667  -8.136 -20.714  1.00 69.74     0.034 A 
HETATM    3  C05 JFX A 501      49.782  -7.000 -19.141  1.00 66.41     0.060 A 
HETATM    4  C06 JFX A 501      48.501  -7.223 -19.610  1.00 67.31     0.018 A 
HETATM    5  C07 JFX A 501      47.399  -6.591 -18.988  1.00 64.74     0.046 A 
HETATM    6  C08 JFX A 501      47.611  -5.738 -17.902  1.00 66.27     0.043 A 
HETATM    7  C18 JFX A 501      48.912  -5.510 -17.427  1.00 58.48     0.032 A 
HETATM    8  C19 JFX A 501      49.993  -6.133 -18.039  1.00 57.92     0.034 A 
HETATM    9  N03 JFX A 501      49.955  -8.398 -20.849  1.00 73.37    -0.304 N 
ATOM     10  H03 JFX A 501      50.369  -9.013 -21.550  1.00  0.00     0.186 HD
HETATM   11  N04 JFX A 501      50.625  -7.720 -19.909  1.00 70.74    -0.300 N 
ATOM     12  H04 JFX A 501      51.638  -7.744 -19.790  1.00  0.00     0.187 HD
ENDROOT
BRANCH   6  13
HETATM   13  N09 JFX A 501      46.501  -5.074 -17.243  1.00 70.80    -0.285 N 
ATOM     14  H09 JFX A 501      45.824  -4.561 -17.807  1.00  0.00     0.178 HD
BRANCH  13  15
HETATM   15  S10 JFX A 501      46.296  -5.130 -15.548  1.00 67.91     0.231 S 
HETATM   16  O16 JFX A 501      45.036  -4.502 -15.157  1.00 64.11    -0.206 OA
HETATM   17  O17 JFX A 501      47.276  -4.269 -14.883  1.00 69.85    -0.206 OA
BRANCH  15  18
HETATM   18  C11 JFX A 501      46.402  -6.848 -14.956  1.00 70.63     0.163 C 
BRANCH  18  19
HETATM   19  C12 JFX A 501      47.308  -6.950 -13.733  1.00 65.37     0.019 C 
BRANCH  19  20
HETATM   20  C13 JFX A 501      47.094  -8.276 -13.003  1.00 65.38     0.032 C 
BRANCH  20  21
HETATM   21  C14 JFX A 501      45.671  -8.796 -13.178  1.00 68.91     0.222 C 
HETATM   22  F15 JFX A 501      44.837  -8.206 -12.275  1.00 69.95    -0.255 F 
ENDBRANCH  20  21
ENDBRANCH  19  20
ENDBRANCH  18  19
ENDBRANCH  15  18
ENDBRANCH  13  15
ENDBRANCH   6  13
TORSDOF 6
ENDMDL
MODEL 3
REMARK VINA RESULT:      -6.4      2.110      2.451
REMARK  6 active torsions:
REMARK  status: ('A' for Active; 'I' for Inactive)
REMARK    1  A    between atoms: C08_6  and  N09_18 
REMARK    2  A    between atoms: C11_7  and  C12_8 
REMARK    3  A    between atoms: C11_7  and  S10_22 
REMARK    4  A    between atoms: C12_8  and  C13_9 
REMARK    5  A    between atoms: C13_9  and  C14_10 
REMARK    6  A    between atoms: N09_18  and  S10_22 
ROOT
HETATM    1  C01 JFX A 501      51.586  -3.086 -18.073  1.00 62.30     0.070 C 
HETATM    2  C02 JFX A 501      51.142  -4.538 -18.211  1.00 69.74     0.034 A 
HETATM    3  C05 JFX A 501      49.914  -6.408 -18.159  1.00 66.41     0.060 A 
HETATM    4  C06 JFX A 501      49.847  -5.061 -17.855  1.00 67.31     0.018 A 
HETATM    5  C07 JFX A 501      48.657  -4.515 -17.319  1.00 64.74     0.046 A 
HETATM    6  C08 JFX A 501      47.553  -5.343 -17.094  1.00 66.27     0.043 A 
HETATM    7  C18 JFX A 501      47.623  -6.710 -17.401  1.00 58.48     0.032 A 
HETATM    8  C19 JFX A 501      48.793  -7.245 -17.928  1.00 57.92     0.034 A 
HETATM    9  N03 JFX A 501      51.879  -5.530 -18.679  1.00 73.37    -0.304 N 
ATOM     10  H03 JFX A 501      52.842  -5.455 -19.007  1.00  0.00     0.186 HD
HETATM   11  N04 JFX A 501      51.147  -6.651 -18.649  1.00 70.74    -0.300 N 
ATOM     12  H04 JFX A 501      51.478  -7.566 -18.955  1.00  0.00     0.187 HD
ENDROOT
BRANCH   6  13
HETATM   13  N09 JFX A 501      46.319  -4.812 -16.545  1.00 70.80    -0.285 N 
ATOM     14  H09 JFX A 501      45.467  -4.857 -17.105  1.00  0.00     0.178 HD
BRANCH  13  15
HETATM   15  S10 JFX A 501      46.252  -4.115 -14.987  1.00 67.91     0.231 S 
HETATM   16  O16 JFX A 501      45.029  -3.335 -14.820  1.00 64.11    -0.206 OA
HETATM   17  O17 JFX A 501      47.284  -3.088 -14.839  1.00 69.85    -0.206 OA
BRANCH  15  18
HETATM   18  C11 JFX A 501      46.404  -5.406 -13.712  1.00 70.63     0.163 C 
BRANCH  18  19
HETATM   19  C12 JFX A 501      45.779  -6.716 -14.182  1.00 65.37     0.019 C 
BRANCH  19  20
HETATM   20  C13 JFX A 501      46.425  -7.912 -13.485  1.00 65.38     0.032 C 
BRANCH  20  21
HETATM   21  C14 JFX A 501      47.886  -7.643 -13.134  1.00 68.91     0.222 C 
HETATM   22  F15 JFX A 501      48.278  -8.436 -12.097  1.00 69.95    -0.255 F 
ENDBRANCH  20  21
ENDBRANCH  19  20
ENDBRANCH  18  19
ENDBRANCH  15  18
ENDBRANCH  13  15
ENDBRANCH   6  13
TORSDOF 6
ENDMDL
MODEL 4
REMARK VINA RESULT:      -6.4      1.531      2.209
REMARK  6 active torsions:
REMARK  status: ('A' for Active; 'I' for Inactive)
REMARK    1  A    between atoms: C08_6  and  N09_18 
REMARK    2  A    between atoms: C11_7  and  C12_8 
REMARK    3  A    between atoms: C11_7  and  S10_22 
REMARK    4  A    between atoms: C12_8  and  C13_9 
REMARK    5  A    between atoms: C13_9  and  C14_10 
REMARK    6  A    between atoms: N09_18  and  S10_22 
ROOT
HETATM    1  C01 JFX A 501      47.707  -7.986 -21.025  1.00 62.30     0.070 C 
HETATM    2  C02 JFX A 501      48.817  -6.989 -20.714  1.00 69.74     0.034 A 
HETATM    3  C05 JFX A 501      50.082  -5.455 -19.686  1.00 66.41     0.060 A 
HETATM    4  C06 JFX A 501      48.924  -6.192 -19.517  1.00 67.31     0.018 A 
HETATM    5  C07 JFX A 501      48.157  -6.044 -18.338  1.00 64.74     0.046 A 
HETATM    6  C08 JFX A 501      48.571  -5.149 -17.348  1.00 66.27     0.043 A 
HETATM    7  C18 JFX A 501      49.745  -4.400 -17.521  1.00 58.48     0.032 A 
HETATM    8  C19 JFX A 501      50.498  -4.547 -18.681  1.00 57.92     0.034 A 
HETATM    9  N03 JFX A 501      49.846  -6.710 -21.496  1.00 73.37    -0.304 N 
ATOM     10  H03 JFX A 501      50.031  -7.123 -22.410  1.00  0.00     0.186 HD
HETATM   11  N04 JFX A 501      50.604  -5.792 -20.883  1.00 70.74    -0.300 N 
ATOM     12  H04 JFX A 501      51.463  -5.400 -21.271  1.00  0.00     0.187 HD
ENDROOT
BRANCH   6  13
HETATM   13  N09 JFX A 501      47.805  -4.975 -16.128  1.00 70.80    -0.285 N 
ATOM     14  H09 JFX A 501      47.815  -4.068 -15.660  1.00  0.00     0.178 HD
BRANCH  13  15
HETATM   15  S10 JFX A 501      46.886  -6.246 -15.452  1.00 67.91     0.231 S 
HETATM   16  O16 JFX A 501      46.629  -7.286 -16.445  1.00 64.11    -0.206 OA
HETATM   17  O17 JFX A 501      45.530  -5.792 -15.140  1.00 69.85    -0.206 OA
BRANCH  15  18
HETATM   18  C11 JFX A 501      47.723  -6.916 -13.981  1.00 70.63     0.163 C 
BRANCH  18  19
HETATM   19  C12 JFX A 501      46.714  -7.481 -12.987  1.00 65.37     0.019 C 
BRANCH  19  20
HETATM   20  C13 JFX A 501      46.615  -9.001 -13.111  1.00 65.38     0.032 C 
BRANCH  20  21
HETATM   21  C14 JFX A 501      45.427  -9.557 -12.331  1.00 68.91     0.222 C 
HETATM   22  F15 JFX A 501      45.860 -10.348 -11.308  1.00 69.95    -0.255 F 
ENDBRANCH  20  21
ENDBRANCH  19  20
ENDBRANCH  18  19
ENDBRANCH  15  18
ENDBRANCH  13  15
ENDBRANCH   6  13
TORSDOF 6
ENDMDL
MODEL 5
REMARK VINA RESULT:      -6.4      3.670      6.672
REMARK  6 active torsions:
REMARK  status: ('A' for Active; 'I' for Inactive)
REMARK    1  A    between atoms: C08_6  and  N09_18 
REMARK    2  A    between atoms: C11_7  and  C12_8 
REMARK    3  A    between atoms: C11_7  and  S10_22 
REMARK    4  A    between atoms: C12_8  and  C13_9 
REMARK    5  A    between atoms: C13_9  and  C14_10 
REMARK    6  A    between atoms: N09_18  and  S10_22 
ROOT
HETATM    1  C01 JFX A 501      46.057  -7.442 -13.423  1.00 62.30     0.070 C 
HETATM    2  C02 JFX A 501      46.518  -6.159 -14.106  1.00 69.74     0.034 A 
HETATM    3  C05 JFX A 501      47.432  -4.726 -15.561  1.00 66.41     0.060 A 
HETATM    4  C06 JFX A 501      47.247  -6.079 -15.347  1.00 67.31     0.018 A 
HETATM    5  C07 JFX A 501      47.747  -7.019 -16.280  1.00 64.74     0.046 A 
HETATM    6  C08 JFX A 501      48.431  -6.574 -17.414  1.00 66.27     0.043 A 
HETATM    7  C18 JFX A 501      48.620  -5.200 -17.630  1.00 58.48     0.032 A 
HETATM    8  C19 JFX A 501      48.128  -4.279 -16.713  1.00 57.92     0.034 A 
HETATM    9  N03 JFX A 501      46.315  -4.932 -13.661  1.00 73.37    -0.304 N 
ATOM     10  H03 JFX A 501      45.825  -4.681 -12.802  1.00  0.00     0.186 HD
HETATM   11  N04 JFX A 501      46.861  -4.072 -14.530  1.00 70.74    -0.300 N 
ATOM     12  H04 JFX A 501      46.847  -3.057 -14.425  1.00  0.00     0.187 HD
ENDROOT
BRANCH   6  13
HETATM   13  N09 JFX A 501      48.955  -7.513 -18.389  1.00 70.80    -0.285 N 
ATOM     14  H09 JFX A 501      49.551  -8.278 -18.070  1.00  0.00     0.178 HD
BRANCH  13  15
HETATM   15  S10 JFX A 501      48.603  -7.374 -20.054  1.00 67.91     0.231 S 
HETATM   16  O16 JFX A 501      47.216  -6.961 -20.258  1.00 64.11    -0.206 OA
HETATM   17  O17 JFX A 501      48.619  -8.690 -20.695  1.00 69.85    -0.206 OA
BRANCH  15  18
HETATM   18  C11 JFX A 501      49.769  -6.227 -20.851  1.00 70.63     0.163 C 
BRANCH  18  19
HETATM   19  C12 JFX A 501      51.192  -6.456 -20.351  1.00 65.37     0.019 C 
BRANCH  19  20
HETATM   20  C13 JFX A 501      51.854  -5.136 -19.958  1.00 65.38     0.032 C 
BRANCH  20  21
HETATM   21  C14 JFX A 501      52.172  -5.082 -18.467  1.00 68.91     0.222 C 
HETATM   22  F15 JFX A 501      51.884  -6.277 -17.878  1.00 69.95    -0.255 F 
ENDBRANCH  20  21
ENDBRANCH  19  20
ENDBRANCH  18  19
ENDBRANCH  15  18
ENDBRANCH  13  15
ENDBRANCH   6  13
TORSDOF 6
ENDMDL
MODEL 6
REMARK VINA RESULT:      -6.3      3.055      3.749
REMARK  6 active torsions:
REMARK  status: ('A' for Active; 'I' for Inactive)
REMARK    1  A    between atoms: C08_6  and  N09_18 
REMARK    2  A    between atoms: C11_7  and  C12_8 
REMARK    3  A    between atoms: C11_7  and  S10_22 
REMARK    4  A    between atoms: C12_8  and  C13_9 
REMARK    5  A    between atoms: C13_9  and  C14_10 
REMARK    6  A    between atoms: N09_18  and  S10_22 
ROOT
HETATM    1  C01 JFX A 501      51.737  -8.168 -19.295  1.00 62.30     0.070 C 
HETATM    2  C02 JFX A 501      50.589  -7.463 -20.009  1.00 69.74     0.034 A 
HETATM    3  C05 JFX A 501      48.622  -6.484 -20.437  1.00 66.41     0.060 A 
HETATM    4  C06 JFX A 501      49.328  -7.095 -19.416  1.00 67.31     0.018 A 
HETATM    5  C07 JFX A 501      48.746  -7.223 -18.132  1.00 64.74     0.046 A 
HETATM    6  C08 JFX A 501      47.457  -6.735 -17.903  1.00 66.27     0.043 A 
HETATM    7  C18 JFX A 501      46.741  -6.118 -18.940  1.00 58.48     0.032 A 
HETATM    8  C19 JFX A 501      47.314  -5.992 -20.200  1.00 57.92     0.034 A 
HETATM    9  N03 JFX A 501      50.582  -7.084 -21.275  1.00 73.37    -0.304 N 
ATOM     10  H03 JFX A 501      51.343  -7.216 -21.941  1.00  0.00     0.186 HD
HETATM   11  N04 JFX A 501      49.407  -6.499 -21.534  1.00 70.74    -0.300 N 
ATOM     12  H04 JFX A 501      49.140  -6.114 -22.440  1.00  0.00     0.187 HD
ENDROOT
BRANCH   6  13
HETATM   13  N09 JFX A 501      46.833  -6.852 -16.597  1.00 70.80    -0.285 N 
ATOM     14  H09 JFX A 501      46.333  -7.710 -16.361  1.00  0.00     0.178 HD
BRANCH  13  15
HETATM   15  S10 JFX A 501      46.915  -5.595 -15.444  1.00 67.91     0.231 S 
HETATM   16  O16 JFX A 501      47.873  -4.573 -15.857  1.00 64.11    -0.206 OA
HETATM   17  O17 JFX A 501      47.513  -6.079 -14.198  1.00 69.85    -0.206 OA
BRANCH  15  18
HETATM   18  C11 JFX A 501      45.261  -4.890 -15.163  1.00 70.63     0.163 C 
BRANCH  18  19
HETATM   19  C12 JFX A 501      45.349  -3.403 -14.833  1.00 65.37     0.019 C 
BRANCH  19  20
HETATM   20  C13 JFX A 501      44.673  -2.561 -15.914  1.00 65.38     0.032 C 
BRANCH  20  21
HETATM   21  C14 JFX A 501      44.333  -1.161 -15.413  1.00 68.91     0.222 C 
HETATM   22  F15 JFX A 501      43.589  -1.233 -14.273  1.00 69.95    -0.255 F 
ENDBRANCH  20  21
ENDBRANCH  19  20
ENDBRANCH  18  19
ENDBRANCH  15  18
ENDBRANCH  13  15
ENDBRANCH   6  13
TORSDOF 6
ENDMDL
MODEL 7
REMARK VINA RESULT:      -6.2      2.801      3.684
REMARK  6 active torsions:
REMARK  status: ('A' for Active; 'I' for Inactive)
REMARK    1  A    between atoms: C08_6  and  N09_18 
REMARK    2  A    between atoms: C11_7  and  C12_8 
REMARK    3  A    between atoms: C11_7  and  S10_22 
REMARK    4  A    between atoms: C12_8  and  C13_9 
REMARK    5  A    between atoms: C13_9  and  C14_10 
REMARK    6  A    between atoms: N09_18  and  S10_22 
ROOT
HETATM    1  C01 JFX A 501      51.530 -10.941 -21.063  1.00 62.30     0.070 C 
HETATM    2  C02 JFX A 501      52.421  -9.793 -20.601  1.00 69.74     0.034 A 
HETATM    3  C05 JFX A 501      53.190  -7.992 -19.518  1.00 66.41     0.060 A 
HETATM    4  C06 JFX A 501      52.082  -8.816 -19.597  1.00 67.31     0.018 A 
HETATM    5  C07 JFX A 501      50.959  -8.573 -18.770  1.00 64.74     0.046 A 
HETATM    6  C08 JFX A 501      50.974  -7.496 -17.879  1.00 66.27     0.043 A 
HETATM    7  C18 JFX A 501      52.098  -6.660 -17.802  1.00 58.48     0.032 A 
HETATM    8  C19 JFX A 501      53.200  -6.900 -18.614  1.00 57.92     0.034 A 
HETATM    9  N03 JFX A 501      53.634  -9.528 -21.050  1.00 73.37    -0.304 N 
ATOM     10  H03 JFX A 501      54.134 -10.054 -21.767  1.00  0.00     0.186 HD
HETATM   11  N04 JFX A 501      54.097  -8.450 -20.405  1.00 70.74    -0.300 N 
ATOM     12  H04 JFX A 501      55.014  -8.031 -20.563  1.00  0.00     0.187 HD
ENDROOT
BRANCH   6  13
HETATM   13  N09 JFX A 501      49.838  -7.221 -17.019  1.00 70.80    -0.285 N 
ATOM     14  H09 JFX A 501      49.789  -7.669 -16.104  1.00  0.00     0.178 HD
BRANCH  13  15
HETATM   15  S10 JFX A 501      48.581  -6.168 -17.496  1.00 67.91     0.231 S 
HETATM   16  O16 JFX A 501      47.801  -6.750 -18.585  1.00 64.11    -0.206 OA
HETATM   17  O17 JFX A 501      49.128  -4.967 -18.130  1.00 69.85    -0.206 OA
BRANCH  15  18
HETATM   18  C11 JFX A 501      47.532  -5.751 -16.068  1.00 70.63     0.163 C 
BRANCH  18  19
HETATM   19  C12 JFX A 501      47.065  -7.011 -15.345  1.00 65.37     0.019 C 
BRANCH  19  20
HETATM   20  C13 JFX A 501      47.030  -6.794 -13.833  1.00 65.38     0.032 C 
BRANCH  20  21
HETATM   21  C14 JFX A 501      47.136  -8.109 -13.068  1.00 68.91     0.222 C 
HETATM   22  F15 JFX A 501      48.304  -8.157 -12.367  1.00 69.95    -0.255 F 
ENDBRANCH  20  21
ENDBRANCH  19  20
ENDBRANCH  18  19
ENDBRANCH  15  18
ENDBRANCH  13  15
ENDBRANCH   6  13
TORSDOF 6
ENDMDL
MODEL 8
REMARK VINA RESULT:      -6.1      3.923      6.840
REMARK  6 active torsions:
REMARK  status: ('A' for Active; 'I' for Inactive)
REMARK    1  A    between atoms: C08_6  and  N09_18 
REMARK    2  A    between atoms: C11_7  and  C12_8 
REMARK    3  A    between atoms: C11_7  and  S10_22 
REMARK    4  A    between atoms: C12_8  and  C13_9 
REMARK    5  A    between atoms: C13_9  and  C14_10 
REMARK    6  A    between atoms: N09_18  and  S10_22 
ROOT
HETATM    1  C01 JFX A 501      47.512  -7.758 -13.067  1.00 62.30     0.070 C 
HETATM    2  C02 JFX A 501      47.051  -6.573 -13.907  1.00 69.74     0.034 A 
HETATM    3  C05 JFX A 501      46.700  -5.183 -15.626  1.00 66.41     0.060 A 
HETATM    4  C06 JFX A 501      47.315  -6.381 -15.312  1.00 67.31     0.018 A 
HETATM    5  C07 JFX A 501      48.004  -7.108 -16.312  1.00 64.74     0.046 A 
HETATM    6  C08 JFX A 501      48.063  -6.608 -17.616  1.00 66.27     0.043 A 
HETATM    7  C18 JFX A 501      47.440  -5.392 -17.934  1.00 58.48     0.032 A 
HETATM    8  C19 JFX A 501      46.764  -4.680 -16.950  1.00 57.92     0.034 A 
HETATM    9  N03 JFX A 501      46.338  -5.548 -13.473  1.00 73.37    -0.304 N 
ATOM     10  H03 JFX A 501      46.006  -5.415 -12.518  1.00  0.00     0.186 HD
HETATM   11  N04 JFX A 501      46.127  -4.715 -14.499  1.00 70.74    -0.300 N 
ATOM     12  H04 JFX A 501      45.603  -3.842 -14.436  1.00  0.00     0.187 HD
ENDROOT
BRANCH   6  13
HETATM   13  N09 JFX A 501      48.762  -7.330 -18.663  1.00 70.80    -0.285 N 
ATOM     14  H09 JFX A 501      48.220  -7.864 -19.344  1.00  0.00     0.178 HD
BRANCH  13  15
HETATM   15  S10 JFX A 501      50.465  -7.311 -18.788  1.00 67.91     0.231 S 
HETATM   16  O16 JFX A 501      51.068  -8.199 -17.797  1.00 64.11    -0.206 OA
HETATM   17  O17 JFX A 501      50.996  -6.008 -18.383  1.00 69.85    -0.206 OA
BRANCH  15  18
HETATM   18  C11 JFX A 501      50.977  -7.747 -20.479  1.00 70.63     0.163 C 
BRANCH  18  19
HETATM   19  C12 JFX A 501      50.545  -9.167 -20.834  1.00 65.37     0.019 C 
BRANCH  19  20
HETATM   20  C13 JFX A 501      51.725 -10.134 -20.753  1.00 65.38     0.032 C 
BRANCH  20  21
HETATM   21  C14 JFX A 501      51.551 -11.321 -21.697  1.00 68.91     0.222 C 
HETATM   22  F15 JFX A 501      51.496 -12.484 -20.989  1.00 69.95    -0.255 F 
ENDBRANCH  20  21
ENDBRANCH  19  20
ENDBRANCH  18  19
ENDBRANCH  15  18
ENDBRANCH  13  15
ENDBRANCH   6  13
TORSDOF 6
ENDMDL
MODEL 9
REMARK VINA RESULT:      -6.0      2.011      2.704
REMARK  6 active torsions:
REMARK  status: ('A' for Active; 'I' for Inactive)
REMARK    1  A    between atoms: C08_6  and  N09_18 
REMARK    2  A    between atoms: C11_7  and  C12_8 
REMARK    3  A    between atoms: C11_7  and  S10_22 
REMARK    4  A    between atoms: C12_8  and  C13_9 
REMARK    5  A    between atoms: C13_9  and  C14_10 
REMARK    6  A    between atoms: N09_18  and  S10_22 
ROOT
HETATM    1  C01 JFX A 501      53.016  -3.578 -19.525  1.00 62.30     0.070 C 
HETATM    2  C02 JFX A 501      52.833  -5.039 -19.130  1.00 69.74     0.034 A 
HETATM    3  C05 JFX A 501      51.917  -6.976 -18.487  1.00 66.41     0.060 A 
HETATM    4  C06 JFX A 501      51.589  -5.659 -18.748  1.00 67.31     0.018 A 
HETATM    5  C07 JFX A 501      50.250  -5.222 -18.610  1.00 64.74     0.046 A 
HETATM    6  C08 JFX A 501      49.264  -6.126 -18.206  1.00 66.27     0.043 A 
HETATM    7  C18 JFX A 501      49.598  -7.462 -17.939  1.00 58.48     0.032 A 
HETATM    8  C19 JFX A 501      50.914  -7.889 -18.076  1.00 57.92     0.034 A 
HETATM    9  N03 JFX A 501      53.788  -5.951 -19.081  1.00 73.37    -0.304 N 
ATOM     10  H03 JFX A 501      54.772  -5.798 -19.299  1.00  0.00     0.186 HD
HETATM   11  N04 JFX A 501      53.242  -7.112 -18.696  1.00 70.74    -0.300 N 
ATOM     12  H04 JFX A 501      53.761  -7.983 -18.577  1.00  0.00     0.187 HD
ENDROOT
BRANCH   6  13
HETATM   13  N09 JFX A 501      47.882  -5.707 -18.056  1.00 70.80    -0.285 N 
ATOM     14  H09 JFX A 501      47.276  -5.692 -18.877  1.00  0.00     0.178 HD
BRANCH  13  15
HETATM   15  S10 JFX A 501      47.241  -5.241 -16.543  1.00 67.91     0.231 S 
HETATM   16  O16 JFX A 501      46.055  -4.407 -16.716  1.00 64.11    -0.206 OA
HETATM   17  O17 JFX A 501      48.153  -4.323 -15.859  1.00 69.85    -0.206 OA
BRANCH  15  18
HETATM   18  C11 JFX A 501      46.886  -6.710 -15.529  1.00 70.63     0.163 C 
BRANCH  18  19
HETATM   19  C12 JFX A 501      46.893  -6.365 -14.043  1.00 65.37     0.019 C 
BRANCH  19  20
HETATM   20  C13 JFX A 501      47.554  -7.474 -13.226  1.00 65.38     0.032 C 
BRANCH  20  21
HETATM   21  C14 JFX A 501      46.641  -8.687 -13.074  1.00 68.91     0.222 C 
HETATM   22  F15 JFX A 501      45.506  -8.345 -12.401  1.00 69.95    -0.255 F 
ENDBRANCH  20  21
ENDBRANCH  19  20
ENDBRANCH  18  19
ENDBRANCH  15  18
ENDBRANCH  13  15
ENDBRANCH   6  13
TORSDOF 6
ENDMDL
